# Name file for MODPATH 7, generated by Flopy version 3.3.0.
MPBAS      RechargeModel_Scen1_mp.mpbas
DIS        RechargeModel_Scen1.dis
HEAD       RechargeModel_Scen1.hds
BUDGET     RechargeModel_Scen1.cbc
