# Name file for MODPATH 7, generated by Flopy version 3.3.0.
MPBAS      RechargeModel_Check_mp.mpbas
DIS        RechargeModel_Check.dis
HEAD       RechargeModel_Check.hds
BUDGET     RechargeModel_Check.cbc
