# Name file for MODPATH 7, generated by Flopy version 3.3.0.
MPBAS      RechargeModel_Scen0_mp.mpbas
DIS        RechargeModel_Scen0.dis
HEAD       RechargeModel_Scen0.hds
BUDGET     RechargeModel_Scen0.cbc
